Test_Network/condensed/network_18/Feeder_5/Loads - Copy.txt
New Load.LOAD1 Phases=1 Bus1=38.3 kV=0.23 kW=1 PF=0.95
New Load.LOAD2 Phases=1 Bus1=40.3 kV=0.23 kW=1 PF=0.95
New Load.LOAD3 Phases=1 Bus1=97.2 kV=0.23 kW=1 PF=0.95
New Load.LOAD4 Phases=1 Bus1=104.3 kV=0.23 kW=1 PF=0.95
New Load.LOAD5 Phases=1 Bus1=111.3 kV=0.23 kW=1 PF=0.95
New Load.LOAD6 Phases=1 Bus1=112.2 kV=0.23 kW=1 PF=0.95
New Load.LOAD7 Phases=1 Bus1=162.1 kV=0.23 kW=1 PF=0.95
New Load.LOAD8 Phases=1 Bus1=184.1 kV=0.23 kW=1 PF=0.95
New Load.LOAD9 Phases=1 Bus1=221.3 kV=0.23 kW=1 PF=0.95
New Load.LOAD10 Phases=1 Bus1=232.1 kV=0.23 kW=1 PF=0.95
New Load.LOAD11 Phases=1 Bus1=353.1 kV=0.23 kW=1 PF=0.95
New Load.LOAD12 Phases=1 Bus1=368.1 kV=0.23 kW=1 PF=0.95
New Load.LOAD13 Phases=1 Bus1=416.2 kV=0.23 kW=1 PF=0.95
New Load.LOAD14 Phases=1 Bus1=471.3 kV=0.23 kW=1 PF=0.95
New Load.LOAD15 Phases=1 Bus1=495.3 kV=0.23 kW=1 PF=0.95
New Load.LOAD16 Phases=1 Bus1=497.3 kV=0.23 kW=1 PF=0.95
New Load.LOAD17 Phases=1 Bus1=516.3 kV=0.23 kW=1 PF=0.95
New Load.LOAD18 Phases=1 Bus1=581.2 kV=0.23 kW=1 PF=0.95
New Load.LOAD19 Phases=1 Bus1=602.3 kV=0.23 kW=1 PF=0.95
New Load.LOAD20 Phases=1 Bus1=610.2 kV=0.23 kW=1 PF=0.95
New Load.LOAD21 Phases=1 Bus1=670.1 kV=0.23 kW=1 PF=0.95
New Load.LOAD22 Phases=1 Bus1=677.3 kV=0.23 kW=1 PF=0.95
New Load.LOAD23 Phases=1 Bus1=726.3 kV=0.23 kW=1 PF=0.95
New Load.LOAD24 Phases=1 Bus1=729.2 kV=0.23 kW=1 PF=0.95
New Load.LOAD25 Phases=1 Bus1=773.2 kV=0.23 kW=1 PF=0.95
New Load.LOAD26 Phases=1 Bus1=799.3 kV=0.23 kW=1 PF=0.95
New Load.LOAD27 Phases=1 Bus1=819.2 kV=0.23 kW=1 PF=0.95
New Load.LOAD28 Phases=1 Bus1=841.2 kV=0.23 kW=1 PF=0.95
New Load.LOAD29 Phases=1 Bus1=847.2 kV=0.23 kW=1 PF=0.95
New Load.LOAD30 Phases=1 Bus1=849.3 kV=0.23 kW=1 PF=0.95
New Load.LOAD31 Phases=1 Bus1=852.3 kV=0.23 kW=1 PF=0.95
New Load.LOAD32 Phases=1 Bus1=854.3 kV=0.23 kW=1 PF=0.95
New Load.LOAD33 Phases=1 Bus1=864.1 kV=0.23 kW=1 PF=0.95
New Load.LOAD34 Phases=1 Bus1=882.2 kV=0.23 kW=1 PF=0.95
New Load.LOAD35 Phases=1 Bus1=894.1 kV=0.23 kW=1 PF=0.95
New Load.LOAD36 Phases=1 Bus1=897.2 kV=0.23 kW=1 PF=0.95
New Load.LOAD37 Phases=1 Bus1=936.2 kV=0.23 kW=1 PF=0.95
New Load.LOAD38 Phases=1 Bus1=948.3 kV=0.23 kW=1 PF=0.95
New Load.LOAD39 Phases=1 Bus1=953.1 kV=0.23 kW=1 PF=0.95
New Load.LOAD40 Phases=1 Bus1=964.3 kV=0.23 kW=1 PF=0.95
New Load.LOAD41 Phases=1 Bus1=976.1 kV=0.23 kW=1 PF=0.95
New Load.LOAD42 Phases=1 Bus1=983.1 kV=0.23 kW=1 PF=0.95
